 &time_control
 run_days                            = 0,
 run_hours                           = 0,
 run_minutes                         = 1,
 run_seconds                         = 0,
 start_year                          = 2003,      2003,
 start_month                         = 07,        07,
 start_day                           = 07,        07,
 start_hour                          = 16,        16,
 start_minute                        = 00,        00,
 start_second                        = 00,        00,
 end_year                            = 2003,      2003,
 end_month                           = 07,        07,
 end_day                             = 07,        07,
 end_hour                            = 16,        16,
 end_minute                          = 02,        02,
 end_second                          = 30,        30,
 history_interval_m                  = 0,         0,
 history_interval_s                  = 6,         3,
 frames_per_outfile                  = 1000,      1000,
 write_hist_at_0h_rst                = .false.,
 restart                             = .false.,
 override_restart_timers             = .false.,
 restart_interval_s                  = 60,
 io_form_auxinput2                   = 2,
 io_form_history                     = 2,
 io_form_restart                     = 2,
 io_form_input                       = 2,
 io_form_boundary                    = 2,
 debug_level                         = 0,
 /

 &domains
 nproc_x                             = -1,
 nproc_y                             = -1,
 time_step                           = 0,
 time_step_fract_num                 = 1,
 time_step_fract_den                 = 15,
 max_dom                             = 2,
 s_we                                = 1,         1,
 e_we                                = 241,       351,
 s_sn                                = 1,         1,
 e_sn                                = 241,       401,
 s_vert                              = 1,         1,
 e_vert                              = 63,        143,
 dx                                  = 10.0,      2.0,
 dy                                  = 10.0,      2.0,
 ztop                                = 400.0,     400.0,
 vert_refine_method                  = 0,         3,
 rebalance                           = 2,
 ideal_init_method                   = 2,
 hypsometric_opt                     = 1,
 grid_id                             = 1,         2,
 parent_id                           = 0,         1,
 i_parent_start                      = 0,         86,
 j_parent_start                      = 0,         81,
 parent_grid_ratio                   = 1,         5,
 parent_time_step_ratio              = 1,         5,
 feedback                            = 0,
 smooth_option                       = 0,
 z_specified(  1: 63)                =   0.000,   5.000,  10.000,  15.000,  20.000,
                                        25.000,  30.000,  35.000,  40.000,  45.000,
                                        50.000,  55.000,  60.000,  65.000,  70.000,
                                        75.000,  80.000,  85.000,  90.000,  95.000,
                                       100.000, 105.079, 110.239, 115.481, 120.806,
                                       126.216, 131.711, 137.294, 142.965, 148.726,
                                       154.579, 160.524, 166.564, 172.700, 178.933,
                                       185.265, 191.698, 198.232, 204.871, 211.614,
                                       218.465, 225.424, 232.494, 239.676, 246.972,
                                       254.384, 261.914, 269.563, 277.333, 285.227,
                                       293.246, 301.392, 309.667, 318.074, 326.614,
                                       335.290, 344.104, 353.057, 362.152, 371.392,
                                       380.779, 390.314, 400.000,
 z_specified( 64:206)                =   0.000,   1.000,   2.000,   3.000,   4.000,
                                         5.000,   6.000,   7.000,   8.000,   9.000,
                                        10.000,  11.000,  12.000,  13.000,  14.000,
                                        15.000,  16.000,  17.000,  18.000,  19.000,
                                        20.000,  21.000,  22.000,  23.000,  24.000,
                                        25.000,  26.027,  27.083,  28.167,  29.281,
                                        30.425,  31.600,  32.808,  34.048,  35.322,
                                        36.632,  37.976,  39.358,  40.777,  42.235,
                                        43.733,  45.272,  46.853,  48.477,  50.145,
                                        51.859,  53.619,  55.428,  57.286,  59.195,
                                        61.156,  63.170,  65.239,  67.365,  69.549,
                                        71.793,  74.098,  76.465,  78.898,  81.397,
                                        83.964,  86.601,  89.310,  92.093,  94.952,
                                        97.889, 100.906, 104.006, 107.190, 110.461,
                                       113.822, 117.274, 120.821, 124.464, 128.207,
                                       132.052, 136.000, 140.000, 144.000, 148.000,
                                       152.000, 156.000, 160.000, 164.000, 168.000,
                                       172.000, 176.000, 180.000, 184.000, 188.000,
                                       192.000, 196.000, 200.000, 204.000, 208.000,
                                       212.000, 216.000, 220.000, 224.000, 228.000,
                                       232.000, 236.000, 240.000, 244.000, 248.000,
                                       252.000, 256.000, 260.000, 264.000, 268.000,
                                       272.000, 276.000, 280.000, 284.000, 288.000,
                                       292.000, 296.000, 300.000, 304.000, 308.000,
                                       312.000, 316.000, 320.000, 324.000, 328.000,
                                       332.000, 336.000, 340.000, 344.000, 348.000,
                                       352.000, 356.000, 360.000, 364.000, 368.000,
                                       372.000, 376.000, 380.000, 384.000, 388.000,
                                       392.000, 396.000, 400.000,
 /

 &physics
 mp_physics                          = 0,         0,
 ra_lw_physics                       = 0,         0,
 ra_sw_physics                       = 0,         0,
 radt                                = 0,         0,
 sf_sfclay_physics                   = 0,         0,
 sf_surface_physics                  = 0,         0,
 bl_pbl_physics                      = 0,         0,
 bldt                                = 0,         0,
 cu_physics                          = 0,         0,
 cudt                                = 0,         0,
 isfflx                              = 0,
 num_soil_layers                     = 5,
 chem_opt                            = 0,         51,
 is_src                              = 0,         119,
 ie_src                              = 0,         119,
 js_src                              = 0,         165,
 je_src                              = 0,         165,
 ks_src                              = 0,         8,
 ke_src                              = 0,         9,
 q_src                               = 0.0,       1.0,
 /

 &fdda
 /

 &dynamics
 rk_ord                              = 3,
 diff_opt                            = 2,         2,
 km_opt                              = 3,         3,
 defor_opt                           = 0,         0,
 damp_opt                            = 3,
 zdamp                               = 40.0,      40.0,
 dampcoef                            = 0.2,       0.2,
 c_s                                 = 0.18,
 c_k                                 = 0.10,
 mix_isotropic                       = 1,         1,
 smdiv                               = 0.1,       0.1,
 emdiv                               = 0.01,      0.01,
 epssm                               = 0.1,       0.1,
 dpx_specified                       = -0.000125,
 dpy_specified                       = -0.000275,
 z_rough                             = 0.1,       0.1,
 time_step_sound                     = 6,         6,
 h_mom_adv_order                     = 5,         5,
 v_mom_adv_order                     = 3,         3,
 h_sca_adv_order                     = 5,         5,
 v_sca_adv_order                     = 3,         3,
 mix_full_fields                     = .true.,    .true.,
 non_hydrostatic                     = .true.,    .true.,
 use_baseparam_fr_nml                = .true.,
 pert_coriolis                       = .false.,   .false.,
 /

 &bdy_control
 spec_bdy_width                      = 5,
 spec_zone                           = 1,
 relax_zone                          = 4,
 write_ibm_data                      = .false.,   .false.,
 no_slip_zs                          = .false.,   .false.,
 periodic_x                          = .true.,    .false.,
 periodic_y                          = .true.,    .false.,
 nested                              = .false.,   .true.,
 open_passive                        = .false.,   .true.,
 ibm_opt                             = 3,         3,
 recon_pts_as_neigh                  = .false.,   .false.,
 interp_opt                          = 2,
 ibm_nn_horz                         = 4,         6,
 ibm_nn_vert                         = 4,         6,
 zero_interior                       = .true.,
 ideal_terrain                       =   1,       13,
 ideal_terrain_ht                    = 0.0,
 dim_terrain                         = 3,
 zero_interior                       = .true.,
 /

 &grib2
 /

 &namelist_quilt
 nio_tasks_per_group = 0,
 nio_groups = 1,
 /
