 &time_control
 run_days                            =  0,
 run_hours                           =  6,
 run_minutes                         =  0,
 run_seconds                         =  0,
 start_year                          = 2019,
 start_month                         = 01,
 start_day                           = 01,
 start_hour                          = 00,
 start_minute                        = 00,
 start_second                        = 00,
 end_year                            = 2019,
 end_month                           = 01,
 end_day                             = 01,
 end_hour                            = 06,
 end_minute                          = 00,
 end_second                          = 00,
 history_interval_m                  = 05,
 history_interval_s                  = 00,
 frames_per_outfile                  = 1000,
 restart                             = .false.,
 restart_interval_s                  = 21600,
 io_form_history                     = 2,
 io_form_restart                     = 2,
 io_form_input                       = 2,
 io_form_boundary                    = 2,
 debug_level                         = 0,
 /

 &domains
 time_step                           = 0,
 time_step_fract_num                 = 3,
 time_step_fract_den                 = 10,
 max_dom                             = 1,
 s_we                                = 1,
 e_we                                = 121,
 s_sn                                = 1,
 e_sn                                = 121,
 s_vert                              = 1,
 e_vert                              = 86,
 hypsometric_opt                     = 1,
 dx                                  = 50.0,
 dy                                  = 50.0,
 ztop                                = 2500.0,
 z_specified                         =  -20.000000,  -10.000000,    0.000000,   10.000000,   20.000000,
                                         30.000000,   40.000000,   50.000000,   60.000000,   70.000000,
                                         80.000000,   90.000000,  100.000000,  110.000000,  120.000000,
                                        130.000000,  140.000000,  150.000000,  160.000000,  170.000000,
                                        180.000000,  190.000000,  200.000000,  210.000000,  220.000000,
                                        230.000000,  240.000000,  250.000000,  260.000000,  270.000000,
                                        280.000000,  290.000000,  300.000000,  310.000000,  320.000000,
                                        330.000000,  340.000000,  350.000000,  360.000000,  370.000000,
                                        380.000000,  390.000000,  400.000000,  410.487000,  421.485000,
                                        433.018000,  445.113000,  457.796000,  471.098000,  485.047000,
                                        499.675000,  515.016000,  531.104000,  547.975000,  565.668000,
                                        584.222000,  603.680000,  624.085000,  645.484000,  667.926000,
                                        691.459000,  716.139000,  742.021000,  769.163000,  797.627000,
                                        827.477000,  858.780000,  891.608000,  926.034000,  962.137000,
                                       1000.000000, 1100.000000, 1200.000000, 1300.000000, 1400.000000,
                                       1500.000000, 1600.000000, 1700.000000, 1800.000000, 1900.000000,
                                       2000.000000, 2100.000000, 2200.000000, 2300.000000, 2400.000000,
                                       2500.000000,
 /

 &physics
 mp_physics                          = 0,
 ra_lw_physics                       = 0,
 ra_sw_physics                       = 0,
 radt                                = 0,
 sf_sfclay_physics                   = 0,
 sf_surface_physics                  = 0,
 bl_pbl_physics                      = 0,
 bldt                                = 0,
 cu_physics                          = 0,
 cudt                                = 0,
 isfflx                              = 0,
 num_soil_layers                     = 5,
 /

 &fdda
 /

 &dynamics
 rk_ord                              = 3,
 diff_opt                            = 2,
 km_opt                              = 3,
 defor_opt                           = 2,
 wall_opt                            = 0,
 blending_height                     = 0.0,
 m_opt                               = 1,
 damp_opt                            = 3,
 zdamp                               = 500.0,
 dampcoef                            = 0.2,
 c_s                                 = 0.18,
 z_rough                             = 0.10,
 mix_isotropic                       = 1,
 smdiv                               = 0.1,
 emdiv                               = 0.01,
 epssm                               = 0.1,
 u_geo                               = 10.0,
 v_geo                               =  0.0,
 time_step_sound                     = 6,
 h_mom_adv_order                     = 5,
 v_mom_adv_order                     = 3,
 h_sca_adv_order                     = 5,
 v_sca_adv_order                     = 3,
 mix_full_fields                     = .true.,
 non_hydrostatic                     = .true.,
 use_baseparam_fr_nml                = .true.,
 /

 &bdy_control
 periodic_x                          = .true.,
 periodic_y                          = .true.,
 nested                              = .false.,
 ibm_opt                             = 3,
 ibm_eddy                            = 0,
 interp_opt                          = 2,
 vrm_bound_pt_as_neigh               =  .true.,
 zero_interior                       = .false.,
 bump_up_recon_pt_within_tol         =  .true.,
 recon_pt_bump_tol                   = 0.1,
 ideal_terrain                       = 3,
 ideal_terrain_ht                    = 0.0,
 ibm_flat_plate_ht                   = -20.0,
 /

 &grib2
 /

 &namelist_quilt
 nio_tasks_per_group = 0,
 nio_groups = 1,
 /
